Version 4
SHEET 1 1448 680
WIRE 368 160 368 112
WIRE 368 160 48 160
WIRE 400 160 368 160
WIRE 400 208 400 160
WIRE 432 208 432 176
WIRE 384 224 208 224
WIRE 48 256 48 160
WIRE 48 256 32 256
WIRE 80 256 48 256
WIRE 384 256 208 256
WIRE 384 288 208 288
WIRE 544 288 480 288
WIRE 624 288 544 288
WIRE 544 320 480 320
WIRE 624 320 544 320
WIRE 784 320 752 320
WIRE 816 320 784 320
WIRE 384 352 208 352
WIRE 544 352 480 352
WIRE 624 352 544 352
WIRE 80 384 64 384
WIRE 384 384 208 384
WIRE 48 400 48 256
WIRE 64 400 64 384
WIRE 64 400 48 400
WIRE 384 416 208 416
WIRE -16 432 -16 400
WIRE 432 464 432 432
WIRE 464 464 464 432
WIRE 544 464 464 464
WIRE 640 464 544 464
FLAG 784 320 out
FLAG 432 176 vss
FLAG 432 464 0
FLAG 144 -16 0
FLAG 336 -16 0
FLAG 544 -48 0
FLAG 144 -96 vss
FLAG 336 -96 a
FLAG 544 -128 b
FLAG 32 256 a
FLAG 32 384 b
FLAG 704 -80 0
FLAG 704 -160 sel
FLAG 544 352 o3
FLAG 544 320 o2
FLAG 544 288 o1
FLAG 544 464 cout
FLAG 368 112 c_in
FLAG -16 432 0
SYMBOL Bin2Dec 688 320 R0
SYMATTR InstName U1
SYMATTR SpiceLine Vhigh={vv}
SYMBOL Dec2Bin 144 384 R0
SYMATTR InstName U2
SYMATTR SpiceLine Vhigh={vv}
SYMBOL Dec2Bin 144 256 R0
SYMATTR InstName U3
SYMATTR SpiceLine Vhigh={vv}
SYMBOL /voltage 144 -112 R0
SYMATTR InstName V1
SYMATTR Value 1.8
SYMBOL /voltage 704 -176 R0
SYMATTR InstName Vsel
SYMATTR Value 1.8
SYMBOL add3b 432 320 R0
SYMATTR InstName X1
SYMATTR SpiceLine ll=180n wn={nnw} wp={nnw*mp}
SYMBOL /voltage 336 -112 R0
SYMATTR InstName Va
SYMATTR Value PULSE(0 {vv} 2000p 1p 1p 2000p 4000p 5)
SYMBOL /voltage 544 -144 R0
SYMATTR InstName Vb
SYMATTR Value PULSE(0 {vv} 1000p 1p 1p 2000p 4000p 5)
TEXT -184 -200 Left 2 !.param vv=1.8 nnw=180n mp=2.21\n.lib BU_180nm.lib\n.op\n.tran 0 10n 0 10p
TEXT 592 40 Left 2 !.meas tran t1 find time when v(o2)=vv*0.1 rise 1\n.meas tran t2 find time when v(o2)=vv*0.9 rise 1\n.meas tran t3 find time when v(o2)=vv*0.1 fall 1\n.meas tran t4 find time when v(o2)=vv*0.9 fall 1\n.meas tran transition_up param abs(t2-t1)\n.meas tran transition_down param abs(t4-t3)\n.meas tran ratio param upslope/downslope
