Version 4
SHEET 1 1776 1032
WIRE 1088 80 880 80
WIRE 1264 144 880 144
WIRE 1616 192 1616 176
WIRE 1440 208 880 208
WIRE 1088 256 1088 80
WIRE 1104 256 1088 256
WIRE 1264 256 1264 144
WIRE 1280 256 1264 256
WIRE 1440 256 1440 208
WIRE 1456 256 1440 256
WIRE 1104 304 1104 256
WIRE 1104 304 1088 304
WIRE 1280 304 1280 256
WIRE 1280 304 1264 304
WIRE 1456 304 1456 256
WIRE 1456 304 1440 304
WIRE 1040 336 1024 336
WIRE 1216 336 1200 336
WIRE 1392 336 1376 336
WIRE 1024 400 1024 336
WIRE 1024 400 880 400
WIRE 1200 400 1200 336
WIRE 1200 400 1024 400
WIRE 1376 400 1376 336
WIRE 1376 400 1200 400
WIRE 1088 448 1088 352
WIRE 1728 448 1088 448
WIRE 1264 496 1264 352
WIRE 1728 496 1264 496
WIRE 1440 544 1440 352
WIRE 1728 544 1440 544
WIRE 1088 576 1088 448
WIRE 1264 576 1264 496
WIRE 1440 576 1440 544
WIRE 1104 624 1088 624
WIRE 1280 624 1264 624
WIRE 1456 624 1440 624
WIRE 1024 656 1024 400
WIRE 1040 656 1024 656
WIRE 1200 656 1200 400
WIRE 1216 656 1200 656
WIRE 1376 656 1376 400
WIRE 1392 656 1376 656
WIRE 1104 672 1104 624
WIRE 1104 672 1088 672
WIRE 1280 672 1280 624
WIRE 1280 672 1264 672
WIRE 1456 672 1456 624
WIRE 1456 672 1440 672
WIRE 1600 704 1600 672
WIRE 1088 720 1088 672
WIRE 1088 720 880 720
WIRE 1264 784 1264 672
WIRE 1264 784 880 784
WIRE 1440 848 1440 672
WIRE 1440 848 880 848
FLAG 880 400 sel
FLAG 1616 176 vdd
FLAG 1728 448 o1
FLAG 1728 496 o2
FLAG 1728 544 o3
FLAG 880 80 a1
FLAG 880 144 a2
FLAG 880 208 a3
FLAG 880 720 b1
FLAG 880 784 b2
FLAG 880 848 b3
FLAG 1600 704 vss
SYMBOL pmos018 1040 256 R0
SYMATTR InstName M1
SYMATTR Value2 l={ll} w={wp} ad={450n*{wp}} as={450n*{wp}} pd={900n+{wp}} ps={1080n+{wp}}
SYMBOL pmos018 1216 256 R0
SYMATTR InstName M2
SYMATTR Value2 l={ll} w={wp} ad={450n*{wp}} as={450n*{wp}} pd={900n+{wp}} ps={1080n+{wp}}
SYMBOL pmos018 1392 256 R0
SYMATTR InstName M3
SYMATTR Value2 l={ll} w={wp} ad={450n*{wp}} as={450n*{wp}} pd={900n+{wp}} ps={1080n+{wp}}
SYMBOL nmos018 1040 576 R0
SYMATTR InstName M4
SYMATTR Value2 l={ll} w={wn} ad={450n*{wn}} as={450n*{wn}} pd={900n+{wn}} ps={1080n+{wn}}
SYMBOL nmos018 1216 576 R0
SYMATTR InstName M5
SYMATTR Value2 l={ll} w={wn} ad={450n*{wn}} as={450n*{wn}} pd={900n+{wn}} ps={1080n+{wn}}
SYMBOL nmos018 1392 576 R0
SYMATTR InstName M6
SYMATTR Value2 l={ll} w={wn} ad={450n*{wn}} as={450n*{wn}} pd={900n+{wn}} ps={1080n+{wn}}
