Version 4
SHEET 1 1192 788
WIRE 448 176 448 160
WIRE 448 224 448 176
WIRE 448 224 288 224
WIRE 288 240 288 224
WIRE 304 240 288 240
WIRE 448 240 448 224
WIRE 464 240 448 240
WIRE 304 288 304 240
WIRE 304 288 288 288
WIRE 464 288 464 240
WIRE 464 288 448 288
WIRE 240 320 208 320
WIRE 400 320 384 320
WIRE 288 352 288 336
WIRE 448 352 448 336
WIRE 448 352 288 352
WIRE 208 368 208 320
WIRE 208 368 48 368
WIRE 272 368 208 368
WIRE 448 368 448 352
WIRE 640 368 448 368
WIRE 672 368 640 368
WIRE 448 416 448 368
WIRE 384 464 384 320
WIRE 384 464 224 464
WIRE 464 464 448 464
WIRE 224 496 224 464
WIRE 224 496 48 496
WIRE 272 496 272 368
WIRE 400 496 272 496
WIRE 448 528 448 512
WIRE 464 528 464 464
WIRE 464 528 448 528
WIRE 448 544 448 528
WIRE 464 592 448 592
WIRE 224 624 224 496
WIRE 400 624 224 624
WIRE 448 656 448 640
WIRE 464 656 464 592
WIRE 464 656 448 656
WIRE 448 704 448 656
FLAG 448 176 vdd
FLAG 448 704 vss
FLAG 640 368 Q
FLAG 48 368 in1
FLAG 48 496 in2
SYMBOL pmos018 240 240 R0
SYMATTR InstName M1
SYMATTR Value2 l={ll} w={wp} ad={450n*{wp}} as={450n*{wp}} pd={900n+{wp}} ps={1080n+{wp}}
SYMBOL pmos018 400 240 R0
SYMATTR InstName M2
SYMATTR Value2 l={ll} w={wp} ad={450n*{wp}} as={450n*{wp}} pd={900n+{wp}} ps={1080n+{wp}}
SYMBOL nmos018 400 416 R0
SYMATTR InstName M3
SYMATTR Value2 l={ll} w={1*{wn}} ad={450n*{wn}} as={450n*{wn}} pd={900n+{wn}} ps={1080n+{wn}}
SYMBOL nmos018 400 544 R0
SYMATTR InstName M4
SYMATTR Value2 l={ll} w={1*{wn}} ad={450n*{wn}} as={450n*{wn}} pd={900n+{wn}} ps={1080n+{wn}}
TEXT 120 168 Left 2 !.lib BU_180nm.lib
TEXT 544 168 Left 2 ;Parametres requis: \nll=longueur \nwn=largeur_nmos \nwp=largeur_pmos
