Version 4
SHEET 1 1192 776
WIRE 416 256 416 224
WIRE 464 256 416 256
WIRE 416 304 416 256
WIRE 464 352 464 256
WIRE 464 352 416 352
WIRE 320 384 272 384
WIRE 368 384 320 384
WIRE 480 400 416 400
WIRE 272 432 272 384
WIRE 272 432 176 432
WIRE 480 448 480 400
WIRE 480 448 416 448
WIRE 432 496 416 496
WIRE 496 496 432 496
WIRE 640 496 496 496
WIRE 320 512 320 384
WIRE 448 512 320 512
WIRE 288 544 176 544
WIRE 368 544 368 480
WIRE 368 544 288 544
WIRE 432 560 432 496
WIRE 432 560 384 560
WIRE 496 560 496 496
WIRE 400 608 384 608
WIRE 576 608 496 608
WIRE 288 640 288 544
WIRE 336 640 288 640
WIRE 448 640 448 512
WIRE 384 672 384 656
WIRE 400 672 400 608
WIRE 400 672 384 672
WIRE 416 672 416 656
WIRE 416 672 400 672
WIRE 496 672 496 656
WIRE 496 672 416 672
WIRE 576 672 576 608
WIRE 576 672 496 672
WIRE 416 688 416 672
FLAG 416 224 vdd
FLAG 416 688 vss
FLAG 640 496 Q
FLAG 176 432 in1
FLAG 176 544 in2
SYMBOL pmos018 368 304 R0
SYMATTR InstName M1
SYMATTR Value2 l={ll} w={wp} ad={450n*{wp}} as={450n*{wp}} pd={900n+{wp}} ps={1080n+{wp}}
SYMBOL pmos018 368 400 R0
SYMATTR InstName M2
SYMATTR Value2 l={ll} w={wp} ad={450n*{wp}} as={450n*{wp}} pd={900n+{wp}} ps={1080n+{wp}}
SYMBOL nmos018 336 560 R0
SYMATTR InstName M3
SYMATTR Value2 l={ll} w={wn} ad={450n*{wn}} as={450n*{wn}} pd={900n+{wn}} ps={1080n+{wn}}
SYMBOL nmos018 448 560 R0
SYMATTR InstName M4
SYMATTR Value2 l={ll} w={wn} ad={450n*{wn}} as={450n*{wn}} pd={900n+{wn}} ps={1080n+{wn}}
TEXT 152 200 Left 2 !.lib BU_180nm.lib
TEXT 576 192 Left 2 ;Parametres requis: \nll=longueur \nwn=largeur_nmos \nwp=largeur_pmos
